180
Mn3 Ni20 P6
Mn    0.000000    0.000000    0.000000
Mn    0.000000    0.000000   11.085000
Mn    0.000000   11.085000    0.000000
Mn    0.000000   11.085000   11.085000
Mn   11.085000    0.000000    0.000000
Mn   11.085000    0.000000   11.085000
Mn   11.085000   11.085000    0.000000
Mn   11.085000   11.085000   11.085000
Mn    0.000000    5.542500    5.542500
Mn   11.085000    5.542500    5.542500
Mn    5.542500    0.000000    5.542500
Mn    5.542500   11.085000    5.542500
Mn    5.542500    5.542500    0.000000
Mn    5.542500    5.542500   11.085000
Mn    2.771250    2.771250    2.771250
Mn    8.313750    8.313750    8.313750
Mn    8.313750    8.313750    2.771250
Mn    2.771250    2.771250    8.313750
Mn    8.313750    2.771250    8.313750
Mn    2.771250    8.313750    2.771250
Mn    2.771250    8.313750    8.313750
Mn    8.313750    2.771250    2.771250
Ni    4.244447    4.244447    4.244447
Ni    6.840554    6.840554    6.840554
Ni    6.840554    6.840554    4.244447
Ni    4.244447    4.244447    6.840554
Ni    6.840554    4.244447    6.840554
Ni    4.244447    6.840554    4.244447
Ni    4.244447    6.840554    6.840554
Ni    6.840554    4.244447    4.244447
Ni    4.244447    9.786947    9.786947
Ni    6.840554    1.298054    1.298054
Ni    6.840554    1.298054    9.786947
Ni    4.244447    9.786947    1.298054
Ni    6.840554    9.786947    1.298054
Ni    4.244447    1.298054    9.786947
Ni    4.244447    1.298054    1.298054
Ni    6.840554    9.786947    9.786947
Ni    9.786947    4.244447    9.786947
Ni    1.298054    6.840554    1.298054
Ni    1.298054    6.840554    9.786947
Ni    9.786947    4.244447    1.298054
Ni    1.298054    4.244447    1.298054
Ni    9.786947    6.840554    9.786947
Ni    9.786947    6.840554    1.298054
Ni    1.298054    4.244447    9.786947
Ni    9.786947    9.786947    4.244447
Ni    1.298054    1.298054    6.840554
Ni    1.298054    1.298054    4.244447
Ni    9.786947    9.786947    6.840554
Ni    1.298054    9.786947    6.840554
Ni    9.786947    1.298054    4.244447
Ni    9.786947    1.298054    6.840554
Ni    1.298054    9.786947    4.244447
Ni    0.000000    1.934333    1.934333
Ni   11.085000    1.934333    1.934333
Ni    0.000000    9.150668    9.150668
Ni   11.085000    9.150668    9.150668
Ni    0.000000    9.150668    1.934333
Ni   11.085000    9.150668    1.934333
Ni    0.000000    1.934333    9.150668
Ni   11.085000    1.934333    9.150668
Ni    1.934333    0.000000    1.934333
Ni    1.934333   11.085000    1.934333
Ni    9.150668    0.000000    9.150668
Ni    9.150668   11.085000    9.150668
Ni    1.934333    0.000000    9.150668
Ni    1.934333   11.085000    9.150668
Ni    9.150668    0.000000    1.934333
Ni    9.150668   11.085000    1.934333
Ni    1.934333    1.934333    0.000000
Ni    1.934333    1.934333   11.085000
Ni    9.150668    9.150668    0.000000
Ni    9.150668    9.150668   11.085000
Ni    9.150668    1.934333    0.000000
Ni    9.150668    1.934333   11.085000
Ni    1.934333    9.150668    0.000000
Ni    1.934333    9.150668   11.085000
Ni    0.000000    7.476833    7.476833
Ni   11.085000    7.476833    7.476833
Ni    0.000000    3.608168    3.608168
Ni   11.085000    3.608168    3.608168
Ni    0.000000    3.608168    7.476833
Ni   11.085000    3.608168    7.476833
Ni    0.000000    7.476833    3.608168
Ni   11.085000    7.476833    3.608168
Ni    1.934333    5.542500    7.476833
Ni    9.150668    5.542500    3.608168
Ni    1.934333    5.542500    3.608168
Ni    9.150668    5.542500    7.476833
Ni    1.934333    7.476833    5.542500
Ni    9.150668    3.608168    5.542500
Ni    9.150668    7.476833    5.542500
Ni    1.934333    3.608168    5.542500
Ni    5.542500    1.934333    7.476833
Ni    5.542500    9.150668    3.608168
Ni    5.542500    9.150668    7.476833
Ni    5.542500    1.934333    3.608168
Ni    7.476833    0.000000    7.476833
Ni    7.476833   11.085000    7.476833
Ni    3.608168    0.000000    3.608168
Ni    3.608168   11.085000    3.608168
Ni    7.476833    0.000000    3.608168
Ni    7.476833   11.085000    3.608168
Ni    3.608168    0.000000    7.476833
Ni    3.608168   11.085000    7.476833
Ni    7.476833    1.934333    5.542500
Ni    3.608168    9.150668    5.542500
Ni    3.608168    1.934333    5.542500
Ni    7.476833    9.150668    5.542500
Ni    5.542500    7.476833    1.934333
Ni    5.542500    3.608168    9.150668
Ni    5.542500    3.608168    1.934333
Ni    5.542500    7.476833    9.150668
Ni    7.476833    5.542500    1.934333
Ni    3.608168    5.542500    9.150668
Ni    7.476833    5.542500    9.150668
Ni    3.608168    5.542500    1.934333
Ni    7.476833    7.476833    0.000000
Ni    7.476833    7.476833   11.085000
Ni    3.608168    3.608168    0.000000
Ni    3.608168    3.608168   11.085000
Ni    3.608168    7.476833    0.000000
Ni    3.608168    7.476833   11.085000
Ni    7.476833    3.608168    0.000000
Ni    7.476833    3.608168   11.085000
 P    2.934200    0.000000    0.000000
 P    2.934200    0.000000   11.085000
 P    2.934200   11.085000    0.000000
 P    2.934200   11.085000   11.085000
 P    8.150801    0.000000    0.000000
 P    8.150801    0.000000   11.085000
 P    8.150801   11.085000    0.000000
 P    8.150801   11.085000   11.085000
 P    0.000000    2.934200    0.000000
 P    0.000000    2.934200   11.085000
 P   11.085000    2.934200    0.000000
 P   11.085000    2.934200   11.085000
 P    0.000000    8.150801    0.000000
 P    0.000000    8.150801   11.085000
 P   11.085000    8.150801    0.000000
 P   11.085000    8.150801   11.085000
 P    0.000000    0.000000    2.934200
 P    0.000000   11.085000    2.934200
 P   11.085000    0.000000    2.934200
 P   11.085000   11.085000    2.934200
 P    0.000000    0.000000    8.150801
 P    0.000000   11.085000    8.150801
 P   11.085000    0.000000    8.150801
 P   11.085000   11.085000    8.150801
 P    2.934200    5.542500    5.542500
 P    8.150801    5.542500    5.542500
 P    0.000000    8.476700    5.542500
 P   11.085000    8.476700    5.542500
 P    0.000000    2.608301    5.542500
 P   11.085000    2.608301    5.542500
 P    0.000000    5.542500    8.476700
 P   11.085000    5.542500    8.476700
 P    0.000000    5.542500    2.608301
 P   11.085000    5.542500    2.608301
 P    8.476700    0.000000    5.542500
 P    8.476700   11.085000    5.542500
 P    2.608301    0.000000    5.542500
 P    2.608301   11.085000    5.542500
 P    5.542500    2.934200    5.542500
 P    5.542500    8.150801    5.542500
 P    5.542500    0.000000    8.476700
 P    5.542500   11.085000    8.476700
 P    5.542500    0.000000    2.608301
 P    5.542500   11.085000    2.608301
 P    8.476700    5.542500    0.000000
 P    8.476700    5.542500   11.085000
 P    2.608301    5.542500    0.000000
 P    2.608301    5.542500   11.085000
 P    5.542500    8.476700    0.000000
 P    5.542500    8.476700   11.085000
 P    5.542500    2.608301    0.000000
 P    5.542500    2.608301   11.085000
 P    5.542500    5.542500    2.934200
 P    5.542500    5.542500    8.150801
